C:\Users\Enrico\GUSS\POLIMI\TESI\OpenFAST_HydroDyn\WorkingCase1.3> FAST_x64 Test25.fst